76
09/11/2025 18:40, XYZ structure generated by mol3D Class, molSimplify
O 	23.431499	4.249279	5.986203
C 	24.092155	5.056948	6.643094
Mn 	22.863033	2.270763	6.422688
O 	24.531330	4.884266	7.782219
Cl 	21.682182	1.588999	4.494367
O 	24.860711	1.773812	5.986203
O 	21.364348	3.055809	7.674025
O 	22.793560	0.580341	7.674025
Mn 	24.461857	3.193844	9.033556
C 	25.890500	1.942122	6.643094
C 	21.434389	3.522486	8.813150
C 	23.232735	0.407660	8.813150
Cl 	25.642707	3.875609	10.961877
O 	23.893390	1.215329	9.470041
O 	22.464178	3.690796	9.470041
O 	25.960541	2.408799	7.782219
C 	27.204239	1.625174	5.950654
C 	27.211811	1.177076	4.655421
C 	28.394933	1.860152	6.587451
C 	28.394933	0.937727	4.006258
H 	26.378893	1.019696	4.201007
C 	29.585628	1.625174	5.950654
H 	28.394933	2.183657	7.493187
C 	28.394933	0.496186	2.553372
C 	29.578056	1.177076	4.655421
C 	30.899367	1.942122	6.643094
O 	29.494764	0.368315	2.010857
O 	27.295103	0.368315	2.010857
H 	30.410974	1.019696	4.201007
O 	30.829326	2.408799	7.782219
O 	31.929156	1.773812	5.986203
C 	24.474540	6.353153	5.950654
C 	25.273384	7.266835	6.587451
C 	24.090262	6.583759	4.655421
C 	25.665234	8.415496	5.950654
H 	25.553547	7.105083	7.493187
C 	24.474540	7.728048	4.006258
H 	23.537507	5.941121	4.201007
C 	26.596588	9.394753	6.643094
C 	25.273384	8.632987	4.655421
C 	24.092155	7.948818	2.553372
O 	26.965722	10.370732	5.986203
O 	26.965722	9.100757	7.782219
H 	25.553547	9.433005	4.201007
O 	23.431499	7.060273	2.010857
O 	24.531330	8.965235	2.010857
C 	20.120650	3.839433	9.505590
C 	20.113078	4.287531	10.800823
C 	18.929956	3.604455	8.868793
C 	18.929956	4.526881	11.449986
H 	20.945996	4.444912	11.255237
C 	17.739261	3.839433	9.505590
H 	18.929956	3.280950	7.963057
C 	18.929956	4.968421	12.902873
C 	17.746833	4.287531	10.800823
C 	16.425523	3.522486	8.813150
O 	20.029786	5.096293	13.445387
O 	17.830125	5.096293	13.445387
H 	16.913915	4.444912	11.255237
O 	15.395733	3.690796	9.470041
O 	16.495563	3.055809	7.674025
C 	22.850349	-0.888545	9.505590
C 	22.051505	-1.802228	8.868793
C 	23.234628	-1.119152	10.800823
C 	21.659655	-2.950888	9.505590
H 	21.771342	-1.640475	7.963057
C 	22.850349	-2.263440	11.449986
H 	23.787382	-0.476514	11.255237
C 	20.728301	-3.930146	8.813150
C 	22.051505	-3.168379	10.800823
C 	23.232735	-2.484211	12.902873
O 	20.359167	-3.636150	7.674025
O 	20.359167	-4.906125	9.470041
H 	21.771342	-3.968398	11.255237
O 	22.793560	-3.500628	13.445387
O 	23.893390	-1.595665	13.445387
