76
09/11/2025 18:40, XYZ structure generated by mol3D Class, molSimplify
O 	21.364348	13.604687	15.133209
C 	21.434389	12.375150	15.072929
Mn 	22.863033	15.046141	15.456244
O 	22.464178	11.699725	15.133209
Cl 	21.682182	17.091434	15.456244
O 	22.793560	14.429843	17.467101
O 	23.431499	14.798157	13.445387
O 	24.860711	15.623313	15.779280
Mn 	24.461857	12.276896	15.456244
C 	23.232735	13.413426	18.009616
C 	24.092155	13.909612	12.902873
C 	25.890500	14.947887	15.839559
Cl 	25.642707	10.231603	15.456244
O 	25.960541	13.718351	15.779280
O 	24.531330	12.893195	13.445387
O 	23.893390	12.524880	17.467101
C 	20.120650	11.616663	15.004922
C 	20.113078	10.246139	15.014195
C 	18.929956	12.295367	15.014195
C 	18.929956	9.554320	15.004922
H 	20.945996	9.765254	15.017287
C 	17.739261	11.616663	15.004922
H 	18.929956	13.257138	15.017287
C 	18.929956	8.037345	15.072929
C 	17.746833	10.246139	15.014195
C 	16.425523	12.375150	15.072929
O 	17.830125	7.483233	15.133209
O 	20.029786	7.483233	15.133209
H 	16.913915	9.765254	15.017287
O 	16.495563	13.604687	15.133209
O 	15.395733	11.699725	15.133209
C 	22.850349	13.192655	19.462503
C 	22.051505	14.097594	20.111665
C 	23.234628	12.048367	20.111665
C 	21.659655	13.880103	21.406898
H 	21.771342	14.897613	19.657251
C 	22.850349	11.817760	21.406898
H 	23.787382	11.405729	19.657251
C 	20.728301	14.859361	22.099338
C 	22.051505	12.731443	22.043695
C 	23.232735	10.521555	22.099338
O 	20.359167	14.565365	23.238463
O 	20.359167	15.835340	21.442447
H 	21.771342	12.569690	22.949431
O 	23.893390	9.713886	21.442447
O 	22.793560	10.348874	23.238463
C 	27.204239	15.706375	15.907566
C 	27.211811	17.076898	15.898293
C 	28.394933	15.027671	15.898293
C 	28.394933	17.768718	15.907566
H 	26.378893	17.557784	15.895201
C 	29.585628	15.706375	15.907566
H 	28.394933	14.065900	15.895201
C 	28.394933	19.285693	15.839559
C 	29.578056	17.076898	15.898293
C 	30.899367	14.947887	15.839559
O 	27.295103	19.839804	15.779280
O 	29.494764	19.839804	15.779280
H 	30.410974	17.557784	15.895201
O 	31.929156	15.623313	15.779280
O 	30.829326	13.718351	15.779280
C 	24.474540	14.130382	11.449986
C 	25.273384	13.225443	10.800823
C 	24.090262	15.274671	10.800823
C 	25.665234	13.442934	9.505590
H 	25.553547	12.425425	11.255237
C 	24.474540	15.505277	9.505590
H 	23.537507	15.917309	11.255237
C 	26.596588	12.463677	8.813150
C 	25.273384	14.591595	8.868793
C 	24.092155	16.801482	8.813150
O 	26.965722	11.487698	9.470041
O 	26.965722	12.757673	7.674025
H 	25.553547	14.753347	7.963057
O 	24.531330	16.974164	7.674025
O 	23.431499	17.609151	9.470041
