76
09/11/2025 18:40, XYZ structure generated by mol3D Class, molSimplify
O 	13.328582	4.884266	7.782219
C 	13.767757	5.056948	6.643094
Mn 	13.398055	3.193844	9.033556
O 	14.428412	4.249279	5.986203
Cl 	12.217204	3.875609	10.961877
O 	11.899370	2.408799	7.782219
O 	15.395733	3.690796	9.470041
O 	13.966521	1.215329	9.470041
Mn 	14.996879	2.270763	6.422688
C 	11.969411	1.942122	6.643094
C 	16.425523	3.522486	8.813150
C 	14.627177	0.407660	8.813150
Cl 	16.177729	1.588999	4.494367
O 	15.066352	0.580341	7.674025
O 	16.495563	3.055809	7.674025
O 	12.999201	1.773812	5.986203
C 	10.655672	1.625174	5.950654
C 	10.648100	1.177076	4.655421
C 	9.464978	1.860152	6.587451
C 	9.464978	0.937727	4.006258
H 	11.481018	1.019696	4.201007
C 	8.274284	1.625174	5.950654
H 	9.464978	2.183657	7.493187
C 	9.464978	0.496186	2.553372
C 	8.281856	1.177076	4.655421
C 	6.960545	1.942122	6.643094
O 	10.564808	0.368315	2.010857
O 	8.365147	0.368315	2.010857
H 	7.448938	1.019696	4.201007
O 	5.930755	1.773812	5.986203
O 	7.030586	2.408799	7.782219
C 	13.385372	6.353153	5.950654
C 	12.586528	7.266835	6.587451
C 	13.769650	6.583759	4.655421
C 	12.194677	8.415496	5.950654
H 	12.306364	7.105083	7.493187
C 	13.385372	7.728048	4.006258
H 	14.322404	5.941121	4.201007
C 	11.263324	9.394753	6.643094
C 	12.586528	8.632987	4.655421
C 	13.767757	7.948818	2.553372
O 	10.894189	9.100757	7.782219
O 	10.894189	10.370732	5.986203
H 	12.306364	9.433005	4.201007
O 	13.328582	8.965235	2.010857
O 	14.428412	7.060273	2.010857
C 	17.739261	3.839433	9.505590
C 	17.746833	4.287531	10.800823
C 	18.929956	3.604455	8.868793
C 	18.929956	4.526881	11.449986
H 	16.913915	4.444912	11.255237
C 	20.120650	3.839433	9.505590
H 	18.929956	3.280950	7.963057
C 	18.929956	4.968421	12.902873
C 	20.113078	4.287531	10.800823
C 	21.434389	3.522486	8.813150
O 	20.029786	5.096293	13.445387
O 	17.830125	5.096293	13.445387
H 	20.945996	4.444912	11.255237
O 	21.364348	3.055809	7.674025
O 	22.464178	3.690796	9.470041
C 	15.009562	-0.888545	9.505590
C 	15.808406	-1.802228	8.868793
C 	14.625284	-1.119152	10.800823
C 	16.200256	-2.950888	9.505590
H 	16.088569	-1.640475	7.963057
C 	15.009562	-2.263440	11.449986
H 	14.072529	-0.476514	11.255237
C 	17.131610	-3.930146	8.813150
C 	15.808406	-3.168379	10.800823
C 	14.627177	-2.484211	12.902873
O 	17.500744	-4.906125	9.470041
O 	17.500744	-3.636150	7.674025
H 	16.088569	-3.968398	11.255237
O 	13.966521	-1.595665	13.445387
O 	15.066352	-3.500628	13.445387
